REMARK  Name = prepared_ligands/pdb/albendazole.pdb
REMARK  6 active torsions:
REMARK  status: ('A' for Active; 'I' for Inactive)
REMARK    1  A    between atoms: C_1  and  C_2
REMARK    2  A    between atoms: C_2  and  C_3
REMARK    3  A    between atoms: C_3  and  S_4
REMARK    4  A    between atoms: S_4  and  C_5
REMARK    5  A    between atoms: C_12  and  O_14
REMARK    6  A    between atoms: O_14  and  C_15
REMARK                            x       y       z     vdW  Elec       q    Type
REMARK                         _______ _______ _______ _____ _____    ______ ____
ROOT
ATOM      1  C   UNL     1       5.287   1.450   2.797  0.00  0.00    +0.010 A 
ATOM      2  C   UNL     1       5.081   2.832   2.918  0.00  0.00    +0.017 A 
ATOM      3  C   UNL     1       5.430   3.535   4.082  0.00  0.00    +0.029 A 
ATOM      4  C   UNL     1       6.002   2.788   5.111  0.00  0.00    +0.068 A 
ATOM      5  N   UNL     1       6.468   3.118   6.361  0.00  0.00    -0.326 N 
ATOM      6  C   UNL     1       6.939   1.976   6.964  0.00  0.00    +0.203 A 
ATOM      7  N   UNL     1       7.465   1.991   8.229  0.00  0.00    -0.221 N 
ATOM      8  C   UNL     1       7.930   0.851   8.825  0.00  0.00    +0.406 C 
ATOM      9  O   UNL     1       7.960  -0.286   8.381  0.00  0.00    -0.226 OA
ATOM     10  N   UNL     1       6.802   0.945   6.164  0.00  0.00    -0.214 NA
ATOM     11  C   UNL     1       6.228   1.420   5.017  0.00  0.00    +0.092 A 
ATOM     12  C   UNL     1       5.875   0.734   3.848  0.00  0.00    +0.044 A 
ATOM     13  H   UNL     1       6.466   4.040   6.765  0.00  0.00    +0.169 HD
ATOM     14  H   UNL     1       7.530   2.840   8.765  0.00  0.00    +0.161 HD
ENDROOT
BRANCH   8  15
ATOM     15  O   UNL     1       8.389   1.173  10.070  0.00  0.00    -0.453 OA
ATOM     16  C   UNL     1       8.900   0.043  10.783  0.00  0.00    +0.282 C 
ENDBRANCH   8  15
BRANCH   1  17
ATOM     17  S   UNL     1       4.864   0.642   1.260  0.00  0.00    -0.125 S 
BRANCH  17  18
ATOM     18  C   UNL     1       3.649  -0.589   1.854  0.00  0.00    +0.074 C 
BRANCH  18  20
ATOM     19  C   UNL     1       2.123  -2.455   1.109  0.00  0.00    +0.004 C 
ATOM     20  C   UNL     1       3.162  -1.431   0.675  0.00  0.00    +0.008 C 
ENDBRANCH  18  20
ENDBRANCH  17  18
ENDBRANCH   1  17
TORSDOF 4
