REMARK  Name = prepared_ligands/pdb/mebendazole.pdb
REMARK  4 active torsions:
REMARK  status: ('A' for Active; 'I' for Inactive)
REMARK    1  A    between atoms: C_1  and  O_2
REMARK    2  A    between atoms: O_2  and  C_3
REMARK    3  A    between atoms: C_10  and  C_11
REMARK    4  A    between atoms: C_11  and  C_13
REMARK                            x       y       z     vdW  Elec       q    Type
REMARK                         _______ _______ _______ _____ _____    ______ ____
ROOT
ATOM      1  C   UNL     1       3.270   0.769   1.131  0.00  0.00    +0.406 C 
ATOM      2  O   UNL     1       2.516   1.002   2.066  0.00  0.00    -0.226 OA
ATOM      3  N   UNL     1       4.621   0.582   1.202  0.00  0.00    -0.221 N 
ATOM      4  C   UNL     1       5.312   0.949   2.323  0.00  0.00    +0.203 A 
ATOM      5  N   UNL     1       6.471   1.553   2.300  0.00  0.00    -0.214 NA
ATOM      6  C   UNL     1       6.725   1.899   3.606  0.00  0.00    +0.091 A 
ATOM      7  C   UNL     1       7.740   2.704   4.140  0.00  0.00    +0.041 A 
ATOM      8  C   UNL     1       7.792   2.880   5.532  0.00  0.00    +0.024 A 
ATOM      9  C   UNL     1       6.849   2.259   6.367  0.00  0.00    +0.014 A 
ATOM     10  C   UNL     1       5.824   1.459   5.845  0.00  0.00    +0.028 A 
ATOM     11  C   UNL     1       5.778   1.338   4.457  0.00  0.00    +0.067 A 
ATOM     12  N   UNL     1       4.871   0.755   3.607  0.00  0.00    -0.326 N 
ATOM     13  H   UNL     1       5.114   0.676   0.327  0.00  0.00    +0.161 HD
ATOM     14  H   UNL     1       4.001   0.308   3.861  0.00  0.00    +0.169 HD
ENDROOT
BRANCH   1  16
ATOM     15  C   UNL     1       1.579   1.195  -0.449  0.00  0.00    +0.282 C 
ATOM     16  O   UNL     1       2.907   0.743  -0.177  0.00  0.00    -0.453 OA
ENDBRANCH   1  16
BRANCH   8  17
ATOM     17  C   UNL     1       8.834   3.789   6.084  0.00  0.00    +0.193 C 
ATOM     18  O   UNL     1       9.200   4.753   5.415  0.00  0.00    -0.287 OA
BRANCH  17  19
ATOM     19  C   UNL     1       9.427   3.563   7.426  0.00  0.00    +0.022 A 
ATOM     20  C   UNL     1       9.806   4.672   8.192  0.00  0.00    +0.012 A 
ATOM     21  C   UNL     1      10.353   4.491   9.463  0.00  0.00    +0.001 A 
ATOM     22  C   UNL     1      10.543   3.202   9.964  0.00  0.00    +0.000 A 
ATOM     23  C   UNL     1      10.191   2.096   9.193  0.00  0.00    +0.001 A 
ATOM     24  C   UNL     1       9.647   2.274   7.920  0.00  0.00    +0.012 A 
ENDBRANCH  17  19
ENDBRANCH   8  17
TORSDOF 3
