REMARK  Name = prepared_ligands/pdb/niclosamide.pdb
REMARK  4 active torsions:
REMARK  status: ('A' for Active; 'I' for Inactive)
REMARK    1  A    between atoms: C_2  and  C_14
REMARK    2  A    between atoms: N_3  and  C_4
REMARK    3  A    between atoms: C_7  and  N_8
REMARK    4  A    between atoms: C_20  and  O_21
REMARK                            x       y       z     vdW  Elec       q    Type
REMARK                         _______ _______ _______ _____ _____    ______ ____
ROOT
ATOM      1  O   UNL     1       0.990  -0.045  -0.299  0.00  0.00    -0.270 OA
ATOM      2  C   UNL     1       2.206   0.109  -0.196  0.00  0.00    +0.252 C 
ATOM      3  N   UNL     1       2.813   1.240   0.314  0.00  0.00    -0.280 N 
ATOM      4  H   UNL     1       3.825   1.309   0.212  0.00  0.00    +0.155 HD
ENDROOT
BRANCH   3   5
ATOM      5  C   UNL     1       2.136   2.363   0.859  0.00  0.00    +0.052 A 
ATOM      6  C   UNL     1       0.788   2.291   1.242  0.00  0.00    +0.027 A 
ATOM      7  C   UNL     1       0.114   3.403   1.749  0.00  0.00    +0.034 A 
ATOM      8  C   UNL     1       0.797   4.612   1.895  0.00  0.00    +0.128 A 
ATOM      9  C   UNL     1       2.150   4.709   1.549  0.00  0.00    +0.054 A 
ATOM     10  C   UNL     1       2.814   3.583   1.039  0.00  0.00    +0.064 A 
ATOM     11 CL   UNL     1       4.477   3.754   0.594  0.00  0.00    -0.082 Cl
BRANCH   8  12
ATOM     12  N   UNL     1       0.078   5.777   2.421  0.00  0.00    +0.056 N 
ATOM     13  O   UNL     1      -1.127   5.647   2.681  0.00  0.00    -0.126 OA
ATOM     14  O   UNL     1       0.720   6.826   2.575  0.00  0.00    -0.126 OA
ENDBRANCH   8  12
ENDBRANCH   3   5
BRANCH   2  15
ATOM     15  C   UNL     1       3.072  -0.992  -0.712  0.00  0.00    +0.080 A 
ATOM     16  C   UNL     1       2.409  -2.030  -1.394  0.00  0.00    +0.036 A 
ATOM     17  C   UNL     1       3.117  -3.112  -1.902  0.00  0.00    +0.042 A 
ATOM     18 CL   UNL     1       2.281  -4.364  -2.733  0.00  0.00    -0.084 Cl
ATOM     19  C   UNL     1       4.496  -3.183  -1.739  0.00  0.00    +0.023 A 
ATOM     20  C   UNL     1       5.170  -2.165  -1.057  0.00  0.00    +0.047 A 
ATOM     21  C   UNL     1       4.460  -1.073  -0.544  0.00  0.00    +0.129 A 
BRANCH  21  22
ATOM     22  O   UNL     1       5.142  -0.093   0.126  0.00  0.00    -0.506 OA
ATOM     23  H   UNL     1       6.058  -0.392   0.276  0.00  0.00    +0.292 HD
ENDBRANCH  21  22
ENDBRANCH   2  15
TORSDOF 4
