REMARK  Name = prepared_ligands/pdb/albendazole.pdb
REMARK  6 active torsions:
REMARK  status: ('A' for Active; 'I' for Inactive)
REMARK    1  A    between atoms: C_1  and  C_2
REMARK    2  A    between atoms: C_2  and  C_3
REMARK    3  A    between atoms: C_3  and  S_4
REMARK    4  A    between atoms: S_4  and  C_5
REMARK    5  A    between atoms: C_12  and  O_14
REMARK    6  A    between atoms: O_14  and  C_15
REMARK                            x       y       z     vdW  Elec       q    Type
REMARK                         _______ _______ _______ _____ _____    ______ ____
ROOT
ATOM      1  C   UNL     1      19.982  43.726  51.305  0.00  0.00    +0.010 A 
ATOM      2  C   UNL     1      19.776  45.108  51.426  0.00  0.00    +0.017 A 
ATOM      3  C   UNL     1      20.124  45.811  52.590  0.00  0.00    +0.029 A 
ATOM      4  C   UNL     1      20.697  45.064  53.619  0.00  0.00    +0.068 A 
ATOM      5  N   UNL     1      21.163  45.394  54.869  0.00  0.00    -0.326 N 
ATOM      6  C   UNL     1      21.633  44.252  55.472  0.00  0.00    +0.203 A 
ATOM      7  N   UNL     1      22.160  44.267  56.737  0.00  0.00    -0.221 N 
ATOM      8  C   UNL     1      22.624  43.127  57.333  0.00  0.00    +0.406 C 
ATOM      9  O   UNL     1      22.654  41.990  56.889  0.00  0.00    -0.226 OA
ATOM     10  N   UNL     1      21.496  43.221  54.672  0.00  0.00    -0.214 NA
ATOM     11  C   UNL     1      20.922  43.696  53.525  0.00  0.00    +0.092 A 
ATOM     12  C   UNL     1      20.569  43.010  52.356  0.00  0.00    +0.044 A 
ATOM     13  H   UNL     1      21.160  46.316  55.273  0.00  0.00    +0.169 HD
ATOM     14  H   UNL     1      22.224  45.116  57.273  0.00  0.00    +0.161 HD
ENDROOT
BRANCH   8  15
ATOM     15  O   UNL     1      23.084  43.449  58.578  0.00  0.00    -0.453 OA
ATOM     16  C   UNL     1      23.595  42.319  59.291  0.00  0.00    +0.282 C 
ENDBRANCH   8  15
BRANCH   1  17
ATOM     17  S   UNL     1      19.558  42.918  49.768  0.00  0.00    -0.125 S 
BRANCH  17  18
ATOM     18  C   UNL     1      18.343  41.687  50.362  0.00  0.00    +0.074 C 
BRANCH  18  20
ATOM     19  C   UNL     1      16.817  39.821  49.617  0.00  0.00    +0.004 C 
ATOM     20  C   UNL     1      17.857  40.845  49.183  0.00  0.00    +0.008 C 
ENDBRANCH  18  20
ENDBRANCH  17  18
ENDBRANCH   1  17
TORSDOF 4
