REMARK  Name = prepared_ligands/pdb/mebendazole.pdb
REMARK  4 active torsions:
REMARK  status: ('A' for Active; 'I' for Inactive)
REMARK    1  A    between atoms: C_1  and  O_2
REMARK    2  A    between atoms: O_2  and  C_3
REMARK    3  A    between atoms: C_10  and  C_11
REMARK    4  A    between atoms: C_11  and  C_13
REMARK                            x       y       z     vdW  Elec       q    Type
REMARK                         _______ _______ _______ _____ _____    ______ ____
ROOT
ATOM      1  C   UNL     1      17.452  42.246  50.563  0.00  0.00    +0.406 C 
ATOM      2  O   UNL     1      16.698  42.479  51.498  0.00  0.00    -0.226 OA
ATOM      3  N   UNL     1      18.803  42.059  50.634  0.00  0.00    -0.221 N 
ATOM      4  C   UNL     1      19.494  42.426  51.755  0.00  0.00    +0.203 A 
ATOM      5  N   UNL     1      20.653  43.030  51.732  0.00  0.00    -0.214 NA
ATOM      6  C   UNL     1      20.907  43.376  53.038  0.00  0.00    +0.091 A 
ATOM      7  C   UNL     1      21.922  44.181  53.572  0.00  0.00    +0.041 A 
ATOM      8  C   UNL     1      21.974  44.357  54.964  0.00  0.00    +0.024 A 
ATOM      9  C   UNL     1      21.031  43.736  55.799  0.00  0.00    +0.014 A 
ATOM     10  C   UNL     1      20.006  42.936  55.277  0.00  0.00    +0.028 A 
ATOM     11  C   UNL     1      19.960  42.815  53.889  0.00  0.00    +0.067 A 
ATOM     12  N   UNL     1      19.053  42.232  53.039  0.00  0.00    -0.326 N 
ATOM     13  H   UNL     1      19.296  42.153  49.759  0.00  0.00    +0.161 HD
ATOM     14  H   UNL     1      18.183  41.785  53.293  0.00  0.00    +0.169 HD
ENDROOT
BRANCH   1  16
ATOM     15  C   UNL     1      15.761  42.672  48.983  0.00  0.00    +0.282 C 
ATOM     16  O   UNL     1      17.089  42.220  49.255  0.00  0.00    -0.453 OA
ENDBRANCH   1  16
BRANCH   8  17
ATOM     17  C   UNL     1      23.016  45.266  55.516  0.00  0.00    +0.193 C 
ATOM     18  O   UNL     1      23.382  46.230  54.847  0.00  0.00    -0.287 OA
BRANCH  17  19
ATOM     19  C   UNL     1      23.609  45.040  56.858  0.00  0.00    +0.022 A 
ATOM     20  C   UNL     1      23.988  46.149  57.624  0.00  0.00    +0.012 A 
ATOM     21  C   UNL     1      24.535  45.968  58.895  0.00  0.00    +0.001 A 
ATOM     22  C   UNL     1      24.725  44.679  59.396  0.00  0.00    +0.000 A 
ATOM     23  C   UNL     1      24.373  43.573  58.625  0.00  0.00    +0.001 A 
ATOM     24  C   UNL     1      23.829  43.751  57.352  0.00  0.00    +0.012 A 
ENDBRANCH  17  19
ENDBRANCH   8  17
TORSDOF 3
