REMARK  Name = prepared_ligands/pdb/niclosamide.pdb
REMARK  4 active torsions:
REMARK  status: ('A' for Active; 'I' for Inactive)
REMARK    1  A    between atoms: C_2  and  C_14
REMARK    2  A    between atoms: N_3  and  C_4
REMARK    3  A    between atoms: C_7  and  N_8
REMARK    4  A    between atoms: C_20  and  O_21
REMARK                            x       y       z     vdW  Elec       q    Type
REMARK                         _______ _______ _______ _____ _____    ______ ____
ROOT
ATOM      1  O   UNL     1      19.247  42.287  53.406  0.00  0.00    -0.270 OA
ATOM      2  C   UNL     1      20.463  42.441  53.509  0.00  0.00    +0.252 C 
ATOM      3  N   UNL     1      21.070  43.572  54.019  0.00  0.00    -0.280 N 
ATOM      4  H   UNL     1      22.082  43.641  53.917  0.00  0.00    +0.155 HD
ENDROOT
BRANCH   3   5
ATOM      5  C   UNL     1      20.393  44.695  54.564  0.00  0.00    +0.052 A 
ATOM      6  C   UNL     1      19.045  44.623  54.947  0.00  0.00    +0.027 A 
ATOM      7  C   UNL     1      18.371  45.735  55.454  0.00  0.00    +0.034 A 
ATOM      8  C   UNL     1      19.054  46.944  55.600  0.00  0.00    +0.128 A 
ATOM      9  C   UNL     1      20.407  47.041  55.254  0.00  0.00    +0.054 A 
ATOM     10  C   UNL     1      21.071  45.915  54.744  0.00  0.00    +0.064 A 
ATOM     11 CL   UNL     1      22.734  46.086  54.299  0.00  0.00    -0.082 Cl
BRANCH   8  12
ATOM     12  N   UNL     1      18.335  48.109  56.126  0.00  0.00    +0.056 N 
ATOM     13  O   UNL     1      17.130  47.979  56.386  0.00  0.00    -0.126 OA
ATOM     14  O   UNL     1      18.977  49.158  56.280  0.00  0.00    -0.126 OA
ENDBRANCH   8  12
ENDBRANCH   3   5
BRANCH   2  15
ATOM     15  C   UNL     1      21.329  41.340  52.993  0.00  0.00    +0.080 A 
ATOM     16  C   UNL     1      20.666  40.302  52.311  0.00  0.00    +0.036 A 
ATOM     17  C   UNL     1      21.374  39.220  51.803  0.00  0.00    +0.042 A 
ATOM     18 CL   UNL     1      20.538  37.968  50.972  0.00  0.00    -0.084 Cl
ATOM     19  C   UNL     1      22.753  39.149  51.966  0.00  0.00    +0.023 A 
ATOM     20  C   UNL     1      23.427  40.167  52.648  0.00  0.00    +0.047 A 
ATOM     21  C   UNL     1      22.717  41.259  53.161  0.00  0.00    +0.129 A 
BRANCH  21  22
ATOM     22  O   UNL     1      23.399  42.239  53.831  0.00  0.00    -0.506 OA
ATOM     23  H   UNL     1      24.315  41.940  53.981  0.00  0.00    +0.292 HD
ENDBRANCH  21  22
ENDBRANCH   2  15
TORSDOF 4
