REMARK  Name = prepared_ligands/pdb/mebendazole.pdb
REMARK  4 active torsions:
REMARK  status: ('A' for Active; 'I' for Inactive)
REMARK    1  A    between atoms: C_1  and  O_2
REMARK    2  A    between atoms: O_2  and  C_3
REMARK    3  A    between atoms: C_10  and  C_11
REMARK    4  A    between atoms: C_11  and  C_13
REMARK                            x       y       z     vdW  Elec       q    Type
REMARK                         _______ _______ _______ _____ _____    ______ ____
ROOT
ATOM      1  C   UNL     1       3.151   0.652   1.087  0.00  0.00    +0.406 C 
ATOM      2  O   UNL     1       2.398   0.796   2.038  0.00  0.00    -0.226 OA
ATOM      3  N   UNL     1       4.499   0.425   1.140  0.00  0.00    -0.221 N 
ATOM      4  C   UNL     1       5.191   0.649   2.296  0.00  0.00    +0.203 A 
ATOM      5  N   UNL     1       6.369   1.231   2.345  0.00  0.00    -0.214 NA
ATOM      6  C   UNL     1       6.623   1.415   3.680  0.00  0.00    +0.091 A 
ATOM      7  C   UNL     1       7.660   2.122   4.303  0.00  0.00    +0.041 A 
ATOM      8  C   UNL     1       7.712   2.132   5.706  0.00  0.00    +0.024 A 
ATOM      9  C   UNL     1       6.755   1.438   6.463  0.00  0.00    +0.014 A 
ATOM     10  C   UNL     1       5.712   0.731   5.853  0.00  0.00    +0.028 A 
ATOM     11  C   UNL     1       5.662   0.779   4.461  0.00  0.00    +0.067 A 
ATOM     12  N   UNL     1       4.744   0.323   3.550  0.00  0.00    -0.326 N 
ATOM     13  H   UNL     1       4.997   0.606   0.282  0.00  0.00    +0.161 HD
ATOM     14  H   UNL     1       3.864  -0.134   3.750  0.00  0.00    +0.169 HD
ENDROOT
BRANCH   1  16
ATOM     15  C   UNL     1       1.489   1.311  -0.444  0.00  0.00    +0.282 C 
ATOM     16  O   UNL     1       2.799   0.789  -0.218  0.00  0.00    -0.453 OA
ENDBRANCH   1  16
BRANCH   8  17
ATOM     17  C   UNL     1       8.772   2.948   6.361  0.00  0.00    +0.193 C 
ATOM     18  O   UNL     1       9.145   3.987   5.825  0.00  0.00    -0.287 OA
BRANCH  17  19
ATOM     19  C   UNL     1       9.372   2.542   7.658  0.00  0.00    +0.022 A 
ATOM     20  C   UNL     1       9.792   3.537   8.549  0.00  0.00    +0.012 A 
ATOM     21  C   UNL     1      10.348   3.183   9.780  0.00  0.00    +0.001 A 
ATOM     22  C   UNL     1      10.493   1.838  10.120  0.00  0.00    +0.000 A 
ATOM     23  C   UNL     1      10.098   0.844   9.225  0.00  0.00    +0.001 A 
ATOM     24  C   UNL     1       9.551   1.193   7.990  0.00  0.00    +0.012 A 
ENDBRANCH  17  19
ENDBRANCH   8  17
TORSDOF 3
